Old Copies of Repositories/PowerModelsGMDLib/data/ACTIVSg2000/pti/ACTIVSg2000.raw
 0,    100.00, 33, 0, 0, 60.00       / June 02, 2023 10:40:06; Simulator Version 23; BuildDate 2023_5_10
This is a synthetic power system model that does NOT represent the actual grid. It was developed as part of the US ARPA-E Grid 
Data research project and contains no CEII.
 1001,'O DONNELL ~3',  22.0000,2,   1,   9,   1,0.97943562, -22.734843, 1.10000, 0.90000, 1.10000, 0.90000
 1002,'PRESIDIO 2 0', 115.0000,1,   1,   9,   1,1.01273644, -18.088545, 1.10000, 0.90000, 1.10000, 0.90000
 1003,'O DONNELL ~1', 115.0000,1,   1,   9,   1,1.00926292, -17.086700, 1.10000, 0.90000, 1.10000, 0.90000
 1004,'O DONNELL ~2', 230.0000,1,   1,   9,   1,1.01307070, -18.933998, 1.10000, 0.90000, 1.10000, 0.90000
 1005,'BIG SPRING~7', 115.0000,1,   1,   9,   1,1.00557613, -16.077157, 1.10000, 0.90000, 1.10000, 0.90000
 1006,'BIG SPRING~8',  13.8000,2,   1,   9,   1,1.00000000, -13.905591, 1.10000, 0.90000, 1.10000, 0.90000
 1007,'VAN HORN 0  ', 115.0000,1,   1,   9,   1,1.01999998, -18.467213, 1.10000, 0.90000, 1.10000, 0.90000
 1008,'MCCAMEY 1 ~1',  22.0000,2,   1,   9,   1,1.01928508,  -8.605208, 1.10000, 0.90000, 1.10000, 0.90000
 1009,'IRAAN 2 1   ',  13.8000,2,   1,   9,   1,1.00924015,  -5.309597, 1.10000, 0.90000, 1.10000, 0.90000
 1010,'PRESIDIO 1 0', 115.0000,1,   1,   9,   1,1.01999998, -16.792355, 1.10000, 0.90000, 1.10000, 0.90000
 1011,'PRESIDIO 1 1',  22.0000,2,   1,   9,   1,1.02021110, -15.009826, 1.10000, 0.90000, 1.10000, 0.90000
 1012,'SANDERSON 0 ', 115.0000,1,   1,   9,   1,1.00599205, -25.342783, 1.10000, 0.90000, 1.10000, 0.90000
 1013,'MONAHANS 2 0', 115.0000,1,   1,   9,   1,1.00567722, -15.436564, 1.10000, 0.90000, 1.10000, 0.90000
 1014,'GRANDFALLS 0', 115.0000,1,   1,   9,   1,1.01235044, -11.913249, 1.10000, 0.90000, 1.10000, 0.90000
 1015,'MARFA 0     ', 115.0000,1,   1,   9,   1,1.02181768, -18.214501, 1.10000, 0.90000, 1.10000, 0.90000
 1016,'GARDEN CIT~1', 115.0000,1,   1,   9,   1,1.01740694, -15.485448, 1.10000, 0.90000, 1.10000, 0.90000
 1017,'ODESSA 4 0  ', 115.0000,1,   1,   9,   1,0.98167342, -21.426221, 1.10000, 0.90000, 1.10000, 0.90000
 1018,'MONAHANS 1~1',  22.0000,1,   1,   9,   1,0.99114686, -20.216148, 1.10000, 0.90000, 1.10000, 0.90000
 1019,'MIDLAND 4 0 ', 115.0000,1,   1,   9,   1,0.99949187, -22.320416, 1.10000, 0.90000, 1.10000, 0.90000
 1020,'BIG SPRING~1', 115.0000,1,   1,   9,   1,1.01999998, -15.230063, 1.10000, 0.90000, 1.10000, 0.90000
 1021,'BIG SPRING~2',  13.8000,2,   1,   9,   1,1.00000000,  -8.606761, 1.10000, 0.90000, 1.10000, 0.90000
 1022,'O DONNELL ~4', 115.0000,1,   1,   9,   1,1.01242304, -16.204692, 1.10000, 0.90000, 1.10000, 0.90000
 1023,'O DONNELL ~5',  13.8000,2,   1,   9,   1,1.00999999,  -7.300393, 1.10000, 0.90000, 1.10000, 0.90000
 1024,'ODESSA 6 0  ', 115.0000,1,   1,   9,   1,0.99449503, -19.200249, 1.10000, 0.90000, 1.10000, 0.90000
 1025,'BIG SPRIN~13', 115.0000,1,   1,   9,   1,1.01628840, -14.170406, 1.10000, 0.90000, 1.10000, 0.90000
 1026,'BIG SPRIN~14',  13.8000,2,   1,   9,   1,1.00000000,  -4.641462, 1.10000, 0.90000, 1.10000, 0.90000
 1027,'MIDLAND 2 0 ', 115.0000,1,   1,   9,   1,1.00530469, -25.833336, 1.10000, 0.90000, 1.10000, 0.90000
 1028,'COAHOMA 0   ', 115.0000,1,   1,   9,   1,1.01541591, -17.717137, 1.10000, 0.90000, 1.10000, 0.90000
 1029,'MIDLAND 3 0 ', 115.0000,1,   1,   9,   1,1.00241745, -24.858888, 1.10000, 0.90000, 1.10000, 0.90000
 1030,'ALPINE 0    ', 115.0000,1,   1,   9,   1,1.01222980, -13.411431, 1.10000, 0.90000, 1.10000, 0.90000
 1031,'FORT DAVIS 0', 115.0000,1,   1,   9,   1,1.01218879, -17.672259, 1.10000, 0.90000, 1.10000, 0.90000
 1032,'MCCAMEY 1 0 ', 115.0000,1,   1,   9,   1,1.00065839, -12.280471, 1.10000, 0.90000, 1.10000, 0.90000
 1033,'ODESSA 1 8~1',  22.0000,2,   1,   9,   1,1.01675415, -16.898515, 1.10000, 0.90000, 1.10000, 0.90000
 1034,'BIG SPRING~6', 115.0000,1,   1,   9,   1,1.00453448, -14.320349, 1.10000, 0.90000, 1.10000, 0.90000
 1035,'ODESSA 1 1~1',  22.0000,1,   1,   9,   1,1.00000000, -11.030416, 1.10000, 0.90000, 1.10000, 0.90000
 1036,'FORT STOCK~2',  22.0000,2,   1,   9,   1,0.99762475, -12.526972, 1.10000, 0.90000, 1.10000, 0.90000
 1037,'BIG SPRING~3',  22.0000,2,   1,   9,   1,0.97450435, -22.544800, 1.10000, 0.90000, 1.10000, 0.90000
 1038,'MCCAMEY 2 ~1',  22.0000,2,   1,   9,   1,1.01656735,  -7.646607, 1.10000, 0.90000, 1.10000, 0.90000
 1039,'GOLDSMITH ~1',  22.0000,2,   1,   9,   1,1.00000000,  -2.263052, 1.10000, 0.90000, 1.10000, 0.90000
 1040,'GOLDSMITH ~2',  22.0000,2,   1,   9,   1,0.99401456, -20.480040, 1.10000, 0.90000, 1.10000, 0.90000
 1041,'FORSAN 0    ', 115.0000,1,   1,   9,   1,1.00177467, -15.107504, 1.10000, 0.90000, 1.10000, 0.90000
 1042,'FORSAN 1    ',  13.8000,1,   1,   9,   1,1.00177467, -15.107504, 1.10000, 0.90000, 1.10000, 0.90000
 1043,'FORSAN 2    ',  13.8000,2,   1,   9,   1,1.00000000, -11.864177, 1.10000, 0.90000, 1.10000, 0.90000
 1044,'BIG LAKE 0  ', 115.0000,1,   1,   9,   1,1.00675547, -25.963882, 1.10000, 0.90000, 1.10000, 0.90000
 1045,'MIDLAND 5 0 ', 115.0000,1,   1,   9,   1,0.97742546, -24.447556, 1.10000, 0.90000, 1.10000, 0.90000
 1046,'OZONA 0     ', 115.0000,1,   1,   9,   1,1.01763439, -22.491396, 1.10000, 0.90000, 1.10000, 0.90000
 1047,'MONAHANS 1 0', 115.0000,1,   1,   9,   1,1.00525081, -13.350050, 1.10000, 0.90000, 1.10000, 0.90000
 1048,'MONAHANS 1 1',  18.0000,1,   1,   9,   1,1.00525081, -13.350050, 1.10000, 0.90000, 1.10000, 0.90000
 1049,'MONAHANS 1 2',  18.0000,1,   1,   9,   1,1.00525081, -13.350050, 1.10000, 0.90000, 1.10000, 0.90000
 1050,'MONAHANS 1 3',  18.0000,2,   1,   9,   1,1.00000000,  -8.284789, 1.10000, 0.90000, 1.10000, 0.90000
 1051,'MONAHANS 1 4',  18.0000,2,   1,   9,   1,1.00000000,  -6.807389, 1.10000, 0.90000, 1.10000, 0.90000
 1052,'MONAHANS 1 5',  18.0000,2,   1,   9,   1,1.00000000,  -9.134369, 1.10000, 0.90000, 1.10000, 0.90000
 1053,'MONAHANS 1 6', 230.0000,1,   1,   9,   1,1.01740885, -17.336159, 1.10000, 0.90000, 1.10000, 0.90000
 1054,'STANTON 0   ', 115.0000,1,   1,   9,   1,1.00368440, -22.292332, 1.10000, 0.90000, 1.10000, 0.90000
 1055,'ODONNELL 0  ', 115.0000,1,   1,   9,   1,1.00140500, -18.129562, 1.10000, 0.90000, 1.10000, 0.90000
 1056,'LENORAH 0   ', 115.0000,1,   1,   9,   1,1.01999998, -21.819611, 1.10000, 0.90000, 1.10000, 0.90000
 1057,'LENORAH 1   ',  18.0000,1,   1,   9,   1,1.01999998, -21.819611, 1.10000, 0.90000, 1.10000, 0.90000
 1058,'IRAAN 3 0   ', 115.0000,1,   1,   9,   1,1.01937377, -11.220883, 1.10000, 0.90000, 1.10000, 0.90000
 1059,'IRAAN 3 1   ',  22.0000,1,   1,   9,   1,1.01937377, -11.220883, 1.10000, 0.90000, 1.10000, 0.90000
 1060,'IRAAN 3 2   ',  22.0000,1,   1,   9,   1,1.01937377, -11.220883, 1.10000, 0.90000, 1.10000, 0.90000
 1061,'BIG SPRING~9', 115.0000,1,   1,   9,   1,1.00655663, -17.219363, 1.10000, 0.90000, 1.10000, 0.90000
 1062,'BIG SPRIN~10',  13.8000,1,   1,   9,   1,1.00655663, -17.219363, 1.10000, 0.90000, 1.10000, 0.90000
 1063,'BIG SPRIN~11',  13.8000,1,   1,   9,   1,1.00655663, -17.219363, 1.10000, 0.90000, 1.10000, 0.90000
 1064,'ODESSA 3 0  ', 115.0000,1,   1,   9,   1,0.97203445, -24.153272, 1.10000, 0.90000, 1.10000, 0.90000
 1065,'BIG SPRING~4', 115.0000,1,   1,   9,   1,1.00426054, -14.932578, 1.10000, 0.90000, 1.10000, 0.90000
 1066,'BIG SPRING~5',  13.8000,2,   1,   9,   1,1.00000000,  -7.399054, 1.10000, 0.90000, 1.10000, 0.90000
 1067,'BIG SPRIN~12', 115.0000,1,   1,   9,   1,0.99859524, -15.682480, 1.10000, 0.90000, 1.10000, 0.90000
 1068,'MIDLAND 1 0 ', 115.0000,1,   1,   9,   1,0.98680341, -16.436895, 1.10000, 0.90000, 1.10000, 0.90000
 1069,'IRAAN 1 0   ', 115.0000,1,   1,   9,   1,1.02255976,  -8.732588, 1.10000, 0.90000, 1.10000, 0.90000
 1070,'IRAAN 1 1   ',  13.8000,2,   1,   9,   1,1.03999996,  -4.228777, 1.10000, 0.90000, 1.10000, 0.90000
 1071,'ODESSA 1 0  ', 115.0000,1,   1,   9,   1,0.98702675, -21.474040, 1.10000, 0.90000, 1.10000, 0.90000
 1072,'ODESSA 1 1  ',  18.0000,2,   1,   9,   1,1.00999999, -12.110027, 1.10000, 0.90000, 1.10000, 0.90000
 1073,'PANHANDLE ~2',  22.0000,2,   2,  10,   1,1.00999999,  -5.681972, 1.10000, 0.90000, 1.10000, 0.90000
 1074,'MIAMI 0_Gen1',  22.0000,2,   2,  10,   1,1.00999999,  -7.738008, 1.10000, 0.90000, 1.10000, 0.90000
 1075,'ODESSA 1 4  ',  18.0000,2,   1,   9,   1,1.00999999, -10.505543, 1.10000, 0.90000, 1.10000, 0.90000
 1076,'ODESSA 1 5  ',  18.0000,1,   1,   9,   1,0.98702675, -21.474040, 1.10000, 0.90000, 1.10000, 0.90000
 1077,'ODESSA 1 6  ',  18.0000,1,   1,   9,   1,0.98702675, -21.474040, 1.10000, 0.90000, 1.10000, 0.90000
 1078,'ODESSA 1 7  ',  18.0000,2,   1,   9,   1,1.00999999, -11.024660, 1.10000, 0.90000, 1.10000, 0.90000
 1079,'ODESSA 1 8  ', 500.0000,1,   1,   9,   1,1.01621413, -38.582858, 1.10000, 0.90000, 1.10000, 0.90000
 1080,'ODESSA 1 9  ',  18.0000,2,   1,   9,   1,1.00999999, -10.448677, 1.10000, 0.90000, 1.10000, 0.90000
 1081,'ODESSA 1 10 ', 230.0000,1,   1,   9,   1,1.01999998, -18.691287, 1.10000, 0.90000, 1.10000, 0.90000
 1082,'FORT STOCK~1', 115.0000,1,   1,   9,   1,1.01941252,  -5.910392, 1.10000, 0.90000, 1.10000, 0.90000
 1083,'FORT STOCK~3', 115.0000,1,   1,   9,   1,1.01886177,  -9.886742, 1.10000, 0.90000, 1.10000, 0.90000
 1084,'ROSCOE 5 2~1',  22.0000,2,   3,  27,   1,1.02251995, -16.467205, 1.10000, 0.90000, 1.10000, 0.90000
 1085,'KERMIT 0    ', 115.0000,1,   1,   9,   1,1.00898695, -15.342869, 1.10000, 0.90000, 1.10000, 0.90000
 1086,'PECOS 0     ', 115.0000,1,   1,   9,   1,1.01537406, -17.585056, 1.10000, 0.90000, 1.10000, 0.90000
 1087,'SHEFFIELD 0 ', 115.0000,1,   1,   9,   1,1.01999998, -16.125402, 1.10000, 0.90000, 1.10000, 0.90000
 1088,'MCCAMEY 2 0 ', 115.0000,1,   1,   9,   1,1.00000000, -11.878467, 1.10000, 0.90000, 1.10000, 0.90000
 1089,'LAMESA 0    ', 115.0000,1,   1,   9,   1,0.98063183, -21.306753, 1.10000, 0.90000, 1.10000, 0.90000
 1090,'GOLDSMITH 0 ', 115.0000,1,   1,   9,   1,1.01999998, -16.145053, 1.10000, 0.90000, 1.10000, 0.90000
 1091,'RALLS 2 0   ', 161.0000,1,   1,   9,   1,1.02483141, -31.017726, 1.10000, 0.90000, 1.10000, 0.90000
 1112,'SWEETWATER~4',  22.0000,2,   3,  27,   1,1.01480258, -16.483384, 1.10000, 0.90000, 1.10000, 0.90000
 1113,'ROSCOE 3 0~1',  22.0000,2,   3,  27,   1,1.02049720, -16.897979, 1.10000, 0.90000, 1.10000, 0.90000
 1114,'TUSOCOLA 0~1',  22.0000,2,   3,  27,   1,1.01755035, -22.172623, 1.10000, 0.90000, 1.10000, 0.90000
 1115,'SNYDER 2 0~1',  22.0000,1,   3,  27,   1,1.01652181, -22.124670, 1.10000, 0.90000, 1.10000, 0.90000
 1116,'SNYDER 2 0~2',  22.0000,1,   3,  27,   1,1.01652181, -22.124670, 1.10000, 0.90000, 1.10000, 0.90000
 1117,'SNYDER 2 0~3',  22.0000,1,   3,  27,   1,1.01652181, -22.124670, 1.10000, 0.90000, 1.10000, 0.90000
 1118,'SWEETWATER~2',  22.0000,2,   3,  27,   1,1.01715660, -23.627709, 1.10000, 0.90000, 1.10000, 0.90000
 1119,'SWEETWATER~6',  22.0000,2,   3,  27,   1,1.01572418, -17.828457, 1.10000, 0.90000, 1.10000, 0.90000
 1168,'TAFT 1 0_G~1',  22.0000,2,   4,  21,   1,1.02237308, -39.371147, 1.10000, 0.90000, 1.10000, 0.90000
 1169,'SAN PERLIT~2',  22.0000,2,   4,  19,   1,1.01707327, -49.910217, 1.10000, 0.90000, 1.10000, 0.90000
 1170,'BROWNSVILL~2',  22.0000,2,   4,  19,   1,1.01999998, -50.725957, 1.10000, 0.90000, 1.10000, 0.90000
 1171,'BROWNSVILL~3',  22.0000,2,   4,  19,   1,1.01999998, -50.725957, 1.10000, 0.90000, 1.10000, 0.90000
 1172,'BROWNSVILL~4',  22.0000,1,   4,  19,   1,1.01999998, -50.725957, 1.10000, 0.90000, 1.10000, 0.90000
 1173,'BROWNSVILL~5',  22.0000,2,   4,  19,   1,1.01999998, -50.725957, 1.10000, 0.90000, 1.10000, 0.90000
 1174,'BROWNSVILL~6',  22.0000,2,   4,  19,   1,1.01999998, -50.725957, 1.10000, 0.90000, 1.10000, 0.90000
 1175,'BROWNSVILL~7',  22.0000,2,   4,  19,   1,1.01999998, -50.725957, 1.10000, 0.90000, 1.10000, 0.90000
 1176,'BROWNSVILL~8',  22.0000,2,   4,  19,   1,1.01999998, -50.725957, 1.10000, 0.90000, 1.10000, 0.90000
 1177,'BROWNSVILL~9',  22.0000,2,   4,  19,   1,1.01999998, -50.725957, 1.10000, 0.90000, 1.10000, 0.90000
 1178,'BROWNSVIL~10',  22.0000,2,   4,  19,   1,1.01999998, -50.725957, 1.10000, 0.90000, 1.10000, 0.90000
 1179,'BROWNSVIL~11',  22.0000,2,   4,  19,   1,1.01999998, -50.725957, 1.10000, 0.90000, 1.10000, 0.90000
 1180,'SEBASTIAN ~2',  22.0000,2,   4,  19,   1,0.99946594, -61.602118, 1.10000, 0.90000, 1.10000, 0.90000
 1181,'OILTON 0_G~1',  22.0000,2,   4,  20,   1,1.03057230, -51.459011, 1.10000, 0.90000, 1.10000, 0.90000
 1254,'MIDLOTHIAN~2',  22.0000,1,   5,  17,   1,1.00999999, -59.904119, 1.10000, 0.90000, 1.10000, 0.90000
 1255,'MIDLOTHIAN~3',  22.0000,1,   5,  17,   1,1.00999999, -59.904119, 1.10000, 0.90000, 1.10000, 0.90000
 1256,'MIDLOTHIAN~4',  22.0000,1,   5,  17,   1,1.00999999, -59.904119, 1.10000, 0.90000, 1.10000, 0.90000
 1257,'MIDLOTHIAN~5',  22.0000,2,   5,  17,   1,1.00999999, -59.904119, 1.10000, 0.90000, 1.10000, 0.90000
 1258,'MIDLOTHIAN~6',  22.0000,2,   5,  17,   1,1.00999999, -59.904119, 1.10000, 0.90000, 1.10000, 0.90000
 1259,'MIDLOTHIAN~7',  22.0000,1,   5,  17,   1,1.00999999, -59.904119, 1.10000, 0.90000, 1.10000, 0.90000
 1260,'MIDLOTHIAN~8',  22.0000,2,   5,  17,   1,1.00999999, -59.904119, 1.10000, 0.90000, 1.10000, 0.90000
 1261,'MIDLOTHIAN~9',  22.0000,2,   5,  17,   1,1.00999999, -59.904119, 1.10000, 0.90000, 1.10000, 0.90000
 1341,'AUSTIN 1 0~1',  22.0000,1,   6,  23,   1,1.02717519, -49.652169, 1.10000, 0.90000, 1.10000, 0.90000
 1342,'AUSTIN 1 0~2',  22.0000,1,   6,  23,   1,1.02717519, -49.652169, 1.10000, 0.90000, 1.10000, 0.90000
 1343,'AUSTIN 1 0~3',  22.0000,2,   6,  23,   1,1.02717519, -49.652169, 1.10000, 0.90000, 1.10000, 0.90000
 1344,'AUSTIN 1 0~4',  22.0000,1,   6,  23,   1,1.02717519, -49.652169, 1.10000, 0.90000, 1.10000, 0.90000
 1345,'AUSTIN 1 0~5',  22.0000,1,   6,  23,   1,1.02717519, -49.652169, 1.10000, 0.90000, 1.10000, 0.90000
 1346,'AUSTIN 1 0~6',  22.0000,1,   6,  23,   1,1.02717519, -49.652169, 1.10000, 0.90000, 1.10000, 0.90000
 1347,'AUSTIN 1 0~7',  22.0000,1,   6,  23,   1,1.02717519, -49.652169, 1.10000, 0.90000, 1.10000, 0.90000
 1348,'AUSTIN 1 0~8',  22.0000,1,   6,  23,   1,1.02717519, -49.652169, 1.10000, 0.90000, 1.10000, 0.90000
 1349,'AUSTIN 1 0~9',  22.0000,2,   6,  23,   1,1.02717519, -49.652169, 1.10000, 0.90000, 1.10000, 0.90000
 1350,'AUSTIN 1 ~10',  22.0000,2,   6,  23,   1,1.02717519, -49.652169, 1.10000, 0.90000, 1.10000, 0.90000
 1351,'AUSTIN 1 ~11',  22.0000,1,   6,  23,   1,1.02717519, -49.652169, 1.10000, 0.90000, 1.10000, 0.90000
 1476,'WILLIS 1 0~1',  22.0000,2,   7,   5,   1,1.03080249, -34.570962, 1.10000, 0.90000, 1.10000, 0.90000
 1477,'HOUSTON 6 ~1',  22.0000,2,   7,   4,   1,1.02587342, -26.096847, 1.10000, 0.90000, 1.10000, 0.90000
 1478,'HOUSTON 6 ~2',  22.0000,2,   7,   4,   1,1.02587342, -26.096847, 1.10000, 0.90000, 1.10000, 0.90000
 1479,'HOUSTON 6 ~3',  22.0000,2,   7,   4,   1,1.02587342, -26.096847, 1.10000, 0.90000, 1.10000, 0.90000
 1480,'HOUSTON 6 ~4',  22.0000,2,   7,   4,   1,1.02587342, -26.096847, 1.10000, 0.90000, 1.10000, 0.90000
 1481,'HOUSTON 6 ~5',  22.0000,2,   7,   4,   1,1.02587342, -26.096847, 1.10000, 0.90000, 1.10000, 0.90000
 1482,'HOUSTON 6 ~6',  22.0000,2,   7,   4,   1,1.02587342, -26.096847, 1.10000, 0.90000, 1.10000, 0.90000
 1483,'POINT COMF~2',  22.0000,2,   7,   6,   1,1.02011502, -29.008011, 1.10000, 0.90000, 1.10000, 0.90000
 1484,'POINT COMF~3',  22.0000,2,   7,   6,   1,1.02011502, -29.008011, 1.10000, 0.90000, 1.10000, 0.90000
 1485,'VICTORIA 1~1',  22.0000,2,   7,   6,   1,1.02198434, -32.101961, 1.10000, 0.90000, 1.10000, 0.90000
 1486,'LA PORTE 0~1',  22.0000,2,   7,   4,   1,1.00000000, -33.695263, 1.10000, 0.90000, 1.10000, 0.90000
 1487,'LA PORTE 0~2',  22.0000,2,   7,   4,   1,1.00000000, -33.695263, 1.10000, 0.90000, 1.10000, 0.90000
 1488,'ALVIN 0_Gen1',  22.0000,2,   7,   2,   1,1.03999996, -27.550632, 1.10000, 0.90000, 1.10000, 0.90000
 1489,'ALVIN 0_Ge~1',  22.0000,2,   7,   2,   1,1.03999996, -27.550632, 1.10000, 0.90000, 1.10000, 0.90000
 1490,'ALVIN 0_Ge~2',  22.0000,2,   7,   2,   1,1.03999996, -27.550632, 1.10000, 0.90000, 1.10000, 0.90000
 1491,'ALVIN 0_Gen2',  22.0000,2,   7,   2,   1,1.03999996, -27.550632, 1.10000, 0.90000, 1.10000, 0.90000
 1492,'ALVIN 0_Gen3',  22.0000,2,   7,   2,   1,1.03999996, -27.550632, 1.10000, 0.90000, 1.10000, 0.90000
 1493,'ALVIN 0_Gen4',  22.0000,2,   7,   2,   1,1.03999996, -27.550632, 1.10000, 0.90000, 1.10000, 0.90000
 1494,'ALVIN 0_Gen5',  22.0000,2,   7,   2,   1,1.03999996, -27.550632, 1.10000, 0.90000, 1.10000, 0.90000
 1495,'ALVIN 0_Gen6',  22.0000,2,   7,   2,   1,1.03999996, -27.550632, 1.10000, 0.90000, 1.10000, 0.90000
 1496,'ALVIN 0_Gen7',  22.0000,2,   7,   2,   1,1.03999996, -27.550632, 1.10000, 0.90000, 1.10000, 0.90000
 1497,'ALVIN 0_Gen8',  22.0000,2,   7,   2,   1,1.03999996, -27.550632, 1.10000, 0.90000, 1.10000, 0.90000
 1498,'ALVIN 0_Gen9',  22.0000,2,   7,   2,   1,1.03999996, -27.550632, 1.10000, 0.90000, 1.10000, 0.90000
 1499,'FREEPORT 2~1',  22.0000,2,   7,   2,   1,1.03999996, -27.614318, 1.10000, 0.90000, 1.10000, 0.90000
 1500,'FREEPORT 2~2',  22.0000,2,   7,   2,   1,1.03999996, -27.614318, 1.10000, 0.90000, 1.10000, 0.90000
 1501,'FREEPORT 2~3',  22.0000,2,   7,   2,   1,1.03999996, -27.614318, 1.10000, 0.90000, 1.10000, 0.90000
 1502,'FREEPORT 2~4',  22.0000,2,   7,   2,   1,1.03999996, -27.614318, 1.10000, 0.90000, 1.10000, 0.90000
 1503,'FREEPORT 2~5',  22.0000,2,   7,   2,   1,1.03999996, -27.614318, 1.10000, 0.90000, 1.10000, 0.90000
 1504,'FREEPORT 2~6',  22.0000,2,   7,   2,   1,1.03999996, -27.614318, 1.10000, 0.90000, 1.10000, 0.90000
 1505,'FREEPORT 2~7',  22.0000,2,   7,   2,   1,1.03999996, -27.614318, 1.10000, 0.90000, 1.10000, 0.90000
 1506,'FREEPORT 2~8',  22.0000,2,   7,   2,   1,1.03999996, -27.614318, 1.10000, 0.90000, 1.10000, 0.90000
 1507,'FREEPORT 2~9',  22.0000,2,   7,   2,   1,1.03999996, -27.614318, 1.10000, 0.90000, 1.10000, 0.90000
 1508,'FREEPORT ~10',  22.0000,1,   7,   2,   1,1.03999996, -27.614318, 1.10000, 0.90000, 1.10000, 0.90000
 1509,'FREEPORT ~11',  22.0000,2,   7,   2,   1,1.03999996, -27.614318, 1.10000, 0.90000, 1.10000, 0.90000
 1538,'TRINIDAD 1~1',  22.0000,1,   8,   7,   1,1.00822651, -59.865543, 1.10000, 0.90000, 1.10000, 0.90000
 1539,'TRINIDAD 1~2',  22.0000,1,   8,   7,   1,1.00822651, -59.865543, 1.10000, 0.90000, 1.10000, 0.90000
 1540,'BRYAN 2 0_~1',  22.0000,1,   8,   7,   1,1.01725936, -47.081348, 1.10000, 0.90000, 1.10000, 0.90000
 1541,'BREMOND 0_~1',  22.0000,1,   8,   7,   1,1.02701139, -47.490401, 1.10000, 0.90000, 1.10000, 0.90000
 1542,'BREMOND 0_~2',  22.0000,2,   8,   7,   1,1.02701139, -47.490401, 1.10000, 0.90000, 1.10000, 0.90000
 1543,'BRYAN 1 0_~1',  22.0000,1,   8,   7,   1,1.02220857, -38.944431, 1.10000, 0.90000, 1.10000, 0.90000
 1544,'BRYAN 1 0_~2',  22.0000,1,   8,   7,   1,1.02220857, -38.944431, 1.10000, 0.90000, 1.10000, 0.90000
 2001,'PARIS 3 0   ', 161.0000,1,   2,  11,   1,1.00175178, -59.982148, 1.10000, 0.90000, 1.10000, 0.90000
 2002,'SAVOY 0     ', 500.0000,1,   2,  11,   1,1.01106095, -61.566628, 1.10000, 0.90000, 1.10000, 0.90000
 2003,'SAVOY 1     ', 161.0000,1,   2,  11,   1,1.00933814, -63.828548, 1.10000, 0.90000, 1.10000, 0.90000
 2004,'SAVOY 2     ',  13.8000,1,   2,  11,   1,1.01106095, -61.566628, 1.10000, 0.90000, 1.10000, 0.90000
 2005,'SAVOY 3     ',  13.8000,1,   2,  11,   1,1.01106095, -61.566628, 1.10000, 0.90000, 1.10000, 0.90000
 2006,'SAVOY 4     ',  13.8000,1,   2,  11,   1,1.01106095, -61.566628, 1.10000, 0.90000, 1.10000, 0.90000
 2007,'HONEY GROV~1', 161.0000,1,   2,  11,   1,1.00250876, -59.751902, 1.10000, 0.90000, 1.10000, 0.90000
 2008,'MEMPHIS 0   ', 161.0000,1,   2,  10,   1,1.01612961, -32.833006, 1.10000, 0.90000, 1.10000, 0.90000
 2009,'IOWA PARK 0 ', 161.0000,1,   2,  11,   1,1.01999998, -45.215388, 1.10000, 0.90000, 1.10000, 0.90000
 2010,'VERNON 2 0  ', 161.0000,1,   2,  10,   1,1.01999998, -36.405086, 1.10000, 0.90000, 1.10000, 0.90000
 2011,'PANHANDLE ~3', 500.0000,1,   2,  10,   1,1.03887033, -32.100981, 1.10000, 0.90000, 1.10000, 0.90000
 2012,'PANHANDLE ~4', 161.0000,1,   2,  10,   1,1.02709734, -29.869240, 1.10000, 0.90000, 1.10000, 0.90000
 2013,'PANHANDLE ~5',  18.0000,2,   2,  10,   1,1.03051019, -29.761030, 1.10000, 0.90000, 1.10000, 0.90000
 2014,'CHILDRESS 0 ', 161.0000,1,   2,  10,   1,1.01448798, -33.408935, 1.10000, 0.90000, 1.10000, 0.90000
 2015,'FORESTBURG 0', 161.0000,1,   2,  11,   1,1.00607824, -63.292788, 1.10000, 0.90000, 1.10000, 0.90000
 2016,'SHERMAN 3 0 ', 161.0000,1,   2,  11,   1,1.00601876, -69.954797, 1.10000, 0.90000, 1.10000, 0.90000
 2017,'PANHANDLE ~8', 500.0000,1,   2,  10,   1,1.02839184, -32.246829, 1.10000, 0.90000, 1.10000, 0.90000
 2018,'PANHANDLE ~9', 161.0000,1,   2,  10,   1,1.02649224, -31.456709, 1.10000, 0.90000, 1.10000, 0.90000
 2019,'PANHANDLE~10',  20.0000,1,   2,  10,   1,1.02839184, -32.246829, 1.10000, 0.90000, 1.10000, 0.90000
 2020,'WICHITA F~12', 161.0000,1,   2,  11,   1,0.99517488, -44.885384, 1.10000, 0.90000, 1.10000, 0.90000
 2021,'PARIS 2 0   ', 500.0000,1,   2,  11,   1,1.01387322, -56.702369, 1.10000, 0.90000, 1.10000, 0.90000
 2022,'PARIS 2 1   ', 161.0000,1,   2,  11,   1,1.01001012, -58.637550, 1.10000, 0.90000, 1.10000, 0.90000
 2023,'PARIS 2 2   ',  13.8000,2,   2,  11,   1,1.01999998, -55.139520, 1.10000, 0.90000, 1.10000, 0.90000
 2024,'PARIS 2 3   ',  13.8000,2,   2,  11,   1,1.01999998, -54.474075, 1.10000, 0.90000, 1.10000, 0.90000
 2025,'WICHITA F~10', 161.0000,1,   2,  11,   1,0.99407405, -44.124135, 1.10000, 0.90000, 1.10000, 0.90000
 2026,'WHEELER 0   ', 161.0000,1,   2,  10,   1,1.02648044, -31.081493, 1.10000, 0.90000, 1.10000, 0.90000
 2027,'DEPORT 0    ', 161.0000,1,   2,  11,   1,1.00219655, -60.413016, 1.10000, 0.90000, 1.10000, 0.90000
...
0 / END OF BUS DATA, BEGIN LOAD DATA
 1001,'1 ',1,   1,   9,    20.781,     5.888,     0.000,     0.000,     0.000,     0.000,   1,1, 0
 1002,'1 ',1,   1,   9,    15.414,     4.367,     0.000,     0.000,     0.000,     0.000,   1,1, 0
 1007,'1 ',1,   1,   9,     7.008,     1.986,     0.000,     0.000,     0.000,     0.000,   1,1, 0
 1012,'1 ',1,   1,   9,     2.985,     0.846,     0.000,     0.000,     0.000,     0.000,   1,1, 0
 1013,'1 ',1,   1,   9,     0.510,     0.144,     0.000,     0.000,     0.000,     0.000,   1,1, 0
 1013,'2 ',1,   1,   9,     1.518,     0.430,     0.000,     0.000,     0.000,     0.000,   1,1, 0
 1013,'3 ',1,   1,   9,    27.198,     7.706,     0.000,     0.000,     0.000,     0.000,   1,1, 0
 1014,'1 ',1,   1,   9,     2.220,     0.629,     0.000,     0.000,     0.000,     0.000,   1,1, 0
 1015,'1 ',1,   1,   9,     7.509,     2.128,     0.000,     0.000,     0.000,     0.000,   1,1, 0
 1016,'1 ',1,   1,   9,     2.889,     0.819,     0.000,     0.000,     0.000,     0.000,   1,1, 0
 1017,'1 ',1,   1,   9,    18.345,     5.198,     0.000,     0.000,     0.000,     0.000,   1,1, 0
 1018,'1 ',1,   1,   9,     0.069,     0.020,     0.000,     0.000,     0.000,     0.000,   1,1, 0
 1019,'1 ',1,   1,   9,    61.776,    17.503,     0.000,     0.000,     0.000,     0.000,   1,1, 0
 1024,'1 ',1,   1,   9,    63.039,    17.861,     0.000,     0.000,     0.000,     0.000,   1,1, 0
 1027,'1 ',1,   1,   9,     0.603,     0.171,     0.000,     0.000,     0.000,     0.000,   1,1, 0
 1027,'2 ',1,   1,   9,   100.608,    28.506,     0.000,     0.000,     0.000,     0.000,   1,1, 0
 1028,'1 ',1,   1,   9,     1.425,     0.404,     0.000,     0.000,     0.000,     0.000,   1,1, 0
 1028,'2 ',1,   1,   9,     0.753,     0.213,     0.000,     0.000,     0.000,     0.000,   1,1, 0
 1028,'3 ',1,   1,   9,     4.899,     1.388,     0.000,     0.000,     0.000,     0.000,   1,1, 0
 1028,'4 ',1,   1,   9,     2.937,     0.832,     0.000,     0.000,     0.000,     0.000,   1,1, 0
 1029,'1 ',1,   1,   9,    83.184,    23.569,     0.000,     0.000,     0.000,     0.000,   1,1, 0
 1030,'1 ',1,   1,   9,    23.046,     6.530,     0.000,     0.000,     0.000,     0.000,   1,1, 0
 1030,'2 ',1,   1,   9,     1.581,     0.448,     0.000,     0.000,     0.000,     0.000,   1,1, 0
 1031,'1 ',1,   1,   9,     9.246,     2.620,     0.000,     0.000,     0.000,     0.000,   1,1, 0
 1036,'1 ',1,   1,   9,     1.017,     0.288,     0.000,     0.000,     0.000,     0.000,   1,1, 0
 1036,'2 ',1,   1,   9,    12.579,     3.564,     0.000,     0.000,     0.000,     0.000,   1,1, 0
 1037,'1 ',1,   1,   9,   102.237,    28.967,     0.000,     0.000,     0.000,     0.000,   1,1, 0
 1040,'1 ',1,   1,   9,    44.358,    12.568,     0.000,     0.000,     0.000,     0.000,   1,1, 0
 1044,'1 ',1,   1,   9,     4.512,     1.278,     0.000,     0.000,     0.000,     0.000,   1,1, 0
 1044,'2 ',1,   1,   9,    10.170,     2.881,     0.000,     0.000,     0.000,     0.000,   1,1, 0
 1045,'1 ',1,   1,   9,    98.562,    27.926,     0.000,     0.000,     0.000,     0.000,   1,1, 0
 1046,'1 ',1,   1,   9,     0.006,     0.002,     0.000,     0.000,     0.000,     0.000,   1,1, 0
 1046,'2 ',1,   1,   9,    11.079,     3.139,     0.000,     0.000,     0.000,     0.000,   1,1, 0
 1054,'1 ',1,   1,   9,     1.776,     0.503,     0.000,     0.000,     0.000,     0.000,   1,1, 0
 1054,'2 ',1,   1,   9,     0.519,     0.147,     0.000,     0.000,     0.000,     0.000,   1,1, 0
 1054,'3 ',1,   1,   9,    12.693,     3.596,     0.000,     0.000,     0.000,     0.000,   1,1, 0
 1055,'1 ',1,   1,   9,     3.978,     1.127,     0.000,     0.000,     0.000,     0.000,   1,1, 0
 1058,'1 ',1,   1,   9,     4.086,     1.158,     0.000,     0.000,     0.000,     0.000,   1,1, 0
 1058,'2 ',1,   1,   9,     9.369,     2.655,     0.000,     0.000,     0.000,     0.000,   1,1, 0
 1064,'1 ',1,   1,   9,     6.591,     1.867,     0.000,     0.000,     0.000,     0.000,   1,1, 0
 1064,'2 ',1,   1,   9,   117.168,    33.198,     0.000,     0.000,     0.000,     0.000,   1,1, 0
 1067,'1 ',1,   1,   9,   101.550,    28.773,     0.000,     0.000,     0.000,     0.000,   1,1, 0
 1068,'1 ',1,   1,   9,     0.690,     0.195,     0.000,     0.000,     0.000,     0.000,   1,1, 0
 1068,'2 ',1,   1,   9,    58.713,    16.635,     0.000,     0.000,     0.000,     0.000,   1,1, 0
 1071,'1 ',1,   1,   9,    91.464,    25.915,     0.000,     0.000,     0.000,     0.000,   1,1, 0
 1083,'1 ',1,   1,   9,    39.945,    11.318,     0.000,     0.000,     0.000,     0.000,   1,1, 0
 1085,'1 ',1,   1,   9,     2.922,     0.828,     0.000,     0.000,     0.000,     0.000,   1,1, 0
 1085,'2 ',1,   1,   9,    18.375,     5.206,     0.000,     0.000,     0.000,     0.000,   1,1, 0
 1086,'1 ',1,   1,   9,    39.672,    11.240,     0.000,     0.000,     0.000,     0.000,   1,1, 0
 1087,'1 ',1,   1,   9,     0.909,     0.258,     0.000,     0.000,     0.000,     0.000,   1,1, 0
 1089,'1 ',1,   1,   9,     0.831,     0.235,     0.000,     0.000,     0.000,     0.000,   1,1, 0
 1089,'2 ',1,   1,   9,    39.774,    11.269,     0.000,     0.000,     0.000,     0.000,   1,1, 0
 1091,'1 ',1,   1,   9,     4.713,     1.335,     0.000,     0.000,     0.000,     0.000,   1,1, 0
 1091,'2 ',1,   1,   9,     6.909,     1.958,     0.000,     0.000,     0.000,     0.000,   1,1, 0
 2001,'1 ',1,   2,  11,    14.307,     4.054,     0.000,     0.000,     0.000,     0.000,   1,1, 0
 2001,'2 ',1,   2,  11,    34.050,     9.647,     0.000,     0.000,     0.000,     0.000,   1,1, 0
 2007,'1 ',1,   2,  11,     9.540,     2.703,     0.000,     0.000,     0.000,     0.000,   1,1, 0
 2008,'1 ',1,   2,  10,     8.061,     2.284,     0.000,     0.000,     0.000,     0.000,   1,1, 0
 2009,'1 ',1,   2,  11,    39.135,    11.088,     0.000,     0.000,     0.000,     0.000,   1,1, 0
 2010,'1 ',1,   2,  10,     5.106,     1.447,     0.000,     0.000,     0.000,     0.000,   1,1, 0
 2010,'2 ',1,   2,  10,     9.606,     2.722,     0.000,     0.000,     0.000,     0.000,   1,1, 0
 2010,'3 ',1,   2,  10,     2.928,     0.830,     0.000,     0.000,     0.000,     0.000,   1,1, 0
 2010,'4 ',1,   2,  10,     0.192,     0.054,     0.000,     0.000,     0.000,     0.000,   1,1, 0
 2010,'5 ',1,   2,  10,    38.973,    11.042,     0.000,     0.000,     0.000,     0.000,   1,1, 0
 2014,'1 ',1,   2,  10,     3.624,     1.027,     0.000,     0.000,     0.000,     0.000,   1,1, 0
 2014,'2 ',1,   2,  10,    21.804,     6.178,     0.000,     0.000,     0.000,     0.000,   1,1, 0
 2015,'1 ',1,   2,  11,     4.686,     1.328,     0.000,     0.000,     0.000,     0.000,   1,1, 0
 2016,'1 ',1,   2,  11,    69.267,    19.626,     0.000,     0.000,     0.000,     0.000,   1,1, 0
 2020,'1 ',1,   2,  11,    47.973,    13.592,     0.000,     0.000,     0.000,     0.000,   1,1, 0
 2022,'1 ',1,   2,  11,    11.565,     3.277,     0.000,     0.000,     0.000,     0.000,   1,1, 0
 2025,'1 ',1,   2,  11,    39.618,    11.225,     0.000,     0.000,     0.000,     0.000,   1,1, 0
 2026,'1 ',1,   2,  10,     2.511,     0.711,     0.000,     0.000,     0.000,     0.000,   1,1, 0
 2026,'2 ',1,   2,  10,     0.948,     0.269,     0.000,     0.000,     0.000,     0.000,   1,1, 0
 2026,'3 ',1,   2,  10,     7.173,     2.032,     0.000,     0.000,     0.000,     0.000,   1,1, 0
 2026,'4 ',1,   2,  10,     7.938,     2.249,     0.000,     0.000,     0.000,     0.000,   1,1, 0
 2027,'1 ',1,   2,  11,     3.555,     1.007,     0.000,     0.000,     0.000,     0.000,   1,1, 0
 2028,'1 ',1,   2,  11,    14.238,     4.034,     0.000,     0.000,     0.000,     0.000,   1,1, 0
 2029,'1 ',1,   2,  10,     3.201,     0.907,     0.000,     0.000,     0.000,     0.000,   1,1, 0
 2030,'1 ',1,   2,  11,     3.912,     1.108,     0.000,     0.000,     0.000,     0.000,   1,1, 0
 2030,'2 ',1,   2,  11,    43.233,    12.249,     0.000,     0.000,     0.000,     0.000,   1,1, 0
 2031,'1 ',1,   2,  10,     0.786,     0.223,     0.000,     0.000,     0.000,     0.000,   1,1, 0
 2031,'2 ',1,   2,  10,     1.272,     0.360,     0.000,     0.000,     0.000,     0.000,   1,1, 0
 2031,'3 ',1,   2,  10,     3.708,     1.051,     0.000,     0.000,     0.000,     0.000,   1,1, 0
 2032,'1 ',1,   2,  11,     3.354,     0.950,     0.000,     0.000,     0.000,     0.000,   1,1, 0
 2033,'1 ',1,   2,  11,     1.302,     0.369,     0.000,     0.000,     0.000,     0.000,   1,1, 0
 2033,'2 ',1,   2,  11,    12.270,     3.477,     0.000,     0.000,     0.000,     0.000,   1,1, 0
 2034,'1 ',1,   2,  11,     5.340,     1.513,     0.000,     0.000,     0.000,     0.000,   1,1, 0
 2035,'1 ',1,   2,  10,     4.149,     1.176,     0.000,     0.000,     0.000,     0.000,   1,1, 0
 2035,'2 ',1,   2,  10,     0.534,     0.151,     0.000,     0.000,     0.000,     0.000,   1,1, 0
 2036,'1 ',1,   2,  11,    41.586,    11.783,     0.000,     0.000,     0.000,     0.000,   1,1, 0
 2037,'1 ',1,   2,  11,     0.690,     0.195,     0.000,     0.000,     0.000,     0.000,   1,1, 0
 2037,'2 ',1,   2,  11,     2.811,     0.796,     0.000,     0.000,     0.000,     0.000,   1,1, 0
 2038,'1 ',1,   2,  11,     2.604,     0.738,     0.000,     0.000,     0.000,     0.000,   1,1, 0
 2039,'1 ',1,   2,  11,     5.559,     1.575,     0.000,     0.000,     0.000,     0.000,   1,1, 0
 2040,'1 ',1,   2,  11,    15.903,     4.506,     0.000,     0.000,     0.000,     0.000,   1,1, 0
 2043,'1 ',1,   2,  11,     4.236,     1.200,     0.000,     0.000,     0.000,     0.000,   1,1, 0
 2044,'1 ',1,   2,  11,    27.405,     7.765,     0.000,     0.000,     0.000,     0.000,   1,1, 0
 2045,'1 ',1,   2,  11,    22.605,     6.405,     0.000,     0.000,     0.000,     0.000,   1,1, 0
 2046,'1 ',1,   2,  11,    22.134,     6.271,     0.000,     0.000,     0.000,     0.000,   1,1, 0
 2047,'1 ',1,   2,  11,     9.408,     2.666,     0.000,     0.000,     0.000,     0.000,   1,1, 0
 2047,'2 ',1,   2,  11,     5.547,     1.572,     0.000,     0.000,     0.000,     0.000,   1,1, 0
 2048,'1 ',1,   2,  10,     6.417,     1.818,     0.000,     0.000,     0.000,     0.000,   1,1, 0
 2049,'1 ',1,   2,  10,     0.486,     0.138,     0.000,     0.000,     0.000,     0.000,   1,1, 0
 2049,'2 ',1,   2,  10,     0.579,     0.164,     0.000,     0.000,     0.000,     0.000,   1,1, 0
 2049,'3 ',1,   2,  10,    10.506,     2.977,     0.000,     0.000,     0.000,     0.000,   1,1, 0
 2050,'1 ',1,   2,  11,     3.657,     1.036,     0.000,     0.000,     0.000,     0.000,   1,1, 0
 2051,'1 ',1,   2,  11,    17.850,     5.057,     0.000,     0.000,     0.000,     0.000,   1,1, 0
 2052,'1 ',1,   2,  10,     9.459,     2.680,     0.000,     0.000,     0.000,     0.000,   1,1, 0
 2052,'2 ',1,   2,  10,    15.378,     4.357,     0.000,     0.000,     0.000,     0.000,   1,1, 0
 2053,'1 ',1,   2,  11,    29.133,     8.254,     0.000,     0.000,     0.000,     0.000,   1,1, 0
 2055,'1 ',1,   2,  11,    49.620,    14.059,     0.000,     0.000,     0.000,     0.000,   1,1, 0
 2060,'1 ',1,   2,  11,     3.795,     1.075,     0.000,     0.000,     0.000,     0.000,   1,1, 0
 2063,'1 ',1,   2,  11,    65.616,    18.591,     0.000,     0.000,     0.000,     0.000,   1,1, 0
 2064,'1 ',1,   2,  11,     7.038,     1.994,     0.000,     0.000,     0.000,     0.000,   1,1, 0
 2064,'2 ',1,   2,  11,     3.009,     0.853,     0.000,     0.000,     0.000,     0.000,   1,1, 0
 2065,'1 ',1,   2,  11,    78.360,    22.202,     0.000,     0.000,     0.000,     0.000,   1,1, 0
 2066,'1 ',1,   2,  10,     4.050,     1.147,     0.000,     0.000,     0.000,     0.000,   1,1, 0
 2066,'2 ',1,   2,  10,     2.541,     0.720,     0.000,     0.000,     0.000,     0.000,   1,1, 0
 2066,'3 ',1,   2,  10,     0.522,     0.148,     0.000,     0.000,     0.000,     0.000,   1,1, 0
 2067,'1 ',1,   2,  11,    53.967,    15.291,     0.000,     0.000,     0.000,     0.000,   1,1, 0
 2068,'1 ',1,   2,  11,     5.760,     1.632,     0.000,     0.000,     0.000,     0.000,   1,1, 0
 2069,'1 ',1,   2,  11,    21.924,     6.212,     0.000,     0.000,     0.000,     0.000,   1,1, 0
 2072,'1 ',1,   2,  11,     9.705,     2.750,     0.000,     0.000,     0.000,     0.000,   1,1, 0
 2079,'1 ',1,   2,  10,     4.479,     1.269,     0.000,     0.000,     0.000,     0.000,   1,1, 0
 2080,'1 ',1,   2,  11,    16.932,     4.797,     0.000,     0.000,     0.000,     0.000,   1,1, 0
 2081,'1 ',1,   2,  11,     4.464,     1.265,     0.000,     0.000,     0.000,     0.000,   1,1, 0
 2082,'1 ',1,   2,  11,    59.031,    16.725,     0.000,     0.000,     0.000,     0.000,   1,1, 0
 2086,'1 ',1,   2,  11,     2.193,     0.621,     0.000,     0.000,     0.000,     0.000,   1,1, 0
 2087,'1 ',1,   2,  10,     7.896,     2.237,     0.000,     0.000,     0.000,     0.000,   1,1, 0
 2090,'1 ',1,   2,  11,     2.424,     0.687,     0.000,     0.000,     0.000,     0.000,   1,1, 0
 2091,'1 ',1,   2,  10,    17.046,     4.830,     0.000,     0.000,     0.000,     0.000,   1,1, 0
 2092,'1 ',1,   2,  11,    24.108,     6.831,     0.000,     0.000,     0.000,     0.000,   1,1, 0
 2106,'1 ',1,   2,  11,    14.403,     4.081,     0.000,     0.000,     0.000,     0.000,   1,1, 0
 2107,'1 ',1,   2,  11,    74.151,    21.009,     0.000,     0.000,     0.000,     0.000,   1,1, 0
 2108,'1 ',1,   2,  10,     2.145,     0.608,     0.000,     0.000,     0.000,     0.000,   1,1, 0
 2109,'1 ',1,   2,  11,    33.810,     9.579,     0.000,     0.000,     0.000,     0.000,   1,1, 0
 2110,'1 ',1,   2,  11,     8.589,     2.434,     0.000,     0.000,     0.000,     0.000,   1,1, 0
 2111,'1 ',1,   2,  11,     7.002,     1.984,     0.000,     0.000,     0.000,     0.000,   1,1, 0
 2111,'2 ',1,   2,  11,     6.951,     1.969,     0.000,     0.000,     0.000,     0.000,   1,1, 0
 2112,'1 ',1,   2,  11,     4.542,     1.287,     0.000,     0.000,     0.000,     0.000,   1,1, 0
 2114,'1 ',1,   2,  11,    70.776,    20.053,     0.000,     0.000,     0.000,     0.000,   1,1, 0
 2121,'1 ',1,   2,  11,     2.334,     0.661,     0.000,     0.000,     0.000,     0.000,   1,1, 0
 2122,'1 ',1,   2,  11,     6.723,     1.905,     0.000,     0.000,     0.000,     0.000,   1,1, 0
 2124,'1 ',1,   2,  11,    21.285,     6.031,     0.000,     0.000,     0.000,     0.000,   1,1, 0
 2125,'1 ',1,   2,  11,     4.056,     1.149,     0.000,     0.000,     0.000,     0.000,   1,1, 0
 2126,'1 ',1,   2,  11,    14.235,     4.033,     0.000,     0.000,     0.000,     0.000,   1,1, 0
 2129,'1 ',1,   2,  11,     6.633,     1.879,     0.000,     0.000,     0.000,     0.000,   1,1, 0
 2132,'1 ',1,   2,  10,    11.940,     3.383,     0.000,     0.000,     0.000,     0.000,   1,1, 0
 2133,'1 ',1,   2,  11,     5.679,     1.609,     0.000,     0.000,     0.000,     0.000,   1,1, 0
 3002,'1 ',1,   3,  28,   112.860,    31.977,     0.000,     0.000,     0.000,     0.000,   1,1, 0
 3005,'1 ',1,   3,  28,     0.792,     0.224,     0.000,     0.000,     0.000,     0.000,   1,1, 0
 3005,'2 ',1,   3,  28,     0.825,     0.234,     0.000,     0.000,     0.000,     0.000,   1,1, 0
 3005,'3 ',1,   3,  28,     5.724,     1.622,     0.000,     0.000,     0.000,     0.000,   1,1, 0
 3006,'1 ',1,   3,  27,     7.347,     2.082,     0.000,     0.000,     0.000,     0.000,   1,1, 0
 3007,'1 ',1,   3,  27,    14.964,     4.240,     0.000,     0.000,     0.000,     0.000,   1,1, 0
 3008,'1 ',1,   3,  27,    18.996,     5.382,     0.000,     0.000,     0.000,     0.000,   1,1, 0
 3008,'2 ',1,   3,  27,     0.813,     0.230,     0.000,     0.000,     0.000,     0.000,   1,1, 0
 3009,'1 ',1,   3,  28,    12.540,     3.553,     0.000,     0.000,     0.000,     0.000,   1,1, 0
 3010,'1 ',1,   3,  28,     4.671,     1.323,     0.000,     0.000,     0.000,     0.000,   1,1, 0
 3011,'1 ',1,   3,  28,    18.981,     5.378,     0.000,     0.000,     0.000,     0.000,   1,1, 0
 3011,'2 ',1,   3,  28,     8.157,     2.311,     0.000,     0.000,     0.000,     0.000,   1,1, 0
 3012,'1 ',1,   3,  28,     0.564,     0.160,     0.000,     0.000,     0.000,     0.000,   1,1, 0
 3013,'1 ',1,   3,  27,    64.557,    18.291,     0.000,     0.000,     0.000,     0.000,   1,1, 0
 3014,'1 ',1,   3,  28,    22.002,     6.234,     0.000,     0.000,     0.000,     0.000,   1,1, 0
 3015,'1 ',1,   3,  27,     5.364,     1.520,     0.000,     0.000,     0.000,     0.000,   1,1, 0
 3021,'1 ',1,   3,  27,     0.525,     0.149,     0.000,     0.000,     0.000,     0.000,   1,1, 0
 3021,'2 ',1,   3,  27,     1.416,     0.401,     0.000,     0.000,     0.000,     0.000,   1,1, 0
 3022,'1 ',1,   3,  27,    24.591,     6.967,     0.000,     0.000,     0.000,     0.000,   1,1, 0
 3023,'1 ',1,   3,  27,    10.407,     2.949,     0.000,     0.000,     0.000,     0.000,   1,1, 0
 3024,'1 ',1,   3,  28,    10.131,     2.870,     0.000,     0.000,     0.000,     0.000,   1,1, 0
 3025,'1 ',1,   3,  28,    13.674,     3.874,     0.000,     0.000,     0.000,     0.000,   1,1, 0
 3029,'1 ',1,   3,  28,     4.866,     1.379,     0.000,     0.000,     0.000,     0.000,   1,1, 0
 3030,'1 ',1,   3,  27,   129.720,    36.754,     0.000,     0.000,     0.000,     0.000,   1,1, 0
 3031,'1 ',1,   3,  27,    14.733,     4.174,     0.000,     0.000,     0.000,     0.000,   1,1, 0
 3032,'1 ',1,   3,  27,    72.864,    20.645,     0.000,     0.000,     0.000,     0.000,   1,1, 0
 3035,'1 ',1,   3,  28,     3.465,     0.982,     0.000,     0.000,     0.000,     0.000,   1,1, 0
 3036,'1 ',1,   3,  28,     1.299,     0.368,     0.000,     0.000,     0.000,     0.000,   1,1, 0
 3036,'2 ',1,   3,  28,     4.503,     1.276,     0.000,     0.000,     0.000,     0.000,   1,1, 0
 3040,'1 ',1,   3,  27,    14.607,     4.139,     0.000,     0.000,     0.000,     0.000,   1,1, 0
 3042,'1 ',1,   3,  27,     5.016,     1.421,     0.000,     0.000,     0.000,     0.000,   1,1, 0
 3042,'2 ',1,   3,  27,     3.738,     1.059,     0.000,     0.000,     0.000,     0.000,   1,1, 0
 3049,'1 ',1,   3,  27,    10.584,     2.999,     0.000,     0.000,     0.000,     0.000,   1,1, 0
 3051,'1 ',1,   3,  28,     0.843,     0.239,     0.000,     0.000,     0.000,     0.000,   1,1, 0
 3051,'2 ',1,   3,  28,   144.447,    40.927,     0.000,     0.000,     0.000,     0.000,   1,1, 0
 3052,'1 ',1,   3,  28,     8.076,     2.288,     0.000,     0.000,     0.000,     0.000,   1,1, 0
 3066,'1 ',1,   3,  28,    22.035,     6.243,     0.000,     0.000,     0.000,     0.000,   1,1, 0
 3069,'1 ',1,   3,  27,     3.813,     1.080,     0.000,     0.000,     0.000,     0.000,   1,1, 0
 3072,'1 ',1,   3,  27,     5.985,     1.696,     0.000,     0.000,     0.000,     0.000,   1,1, 0
 3075,'1 ',1,   3,  28,    12.183,     3.452,     0.000,     0.000,     0.000,     0.000,   1,1, 0
 3076,'1 ',1,   3,  28,    10.794,     3.058,     0.000,     0.000,     0.000,     0.000,   1,1, 0
 3077,'1 ',1,   3,  27,    68.655,    19.452,     0.000,     0.000,     0.000,     0.000,   1,1, 0
 3093,'1 ',1,   3,  28,     5.046,     1.430,     0.000,     0.000,     0.000,     0.000,   1,1, 0
 3099,'1 ',1,   3,  27,    12.078,     3.422,     0.000,     0.000,     0.000,     0.000,   1,1, 0
 3100,'1 ',1,   3,  27,     8.526,     2.416,     0.000,     0.000,     0.000,     0.000,   1,1, 0
 3101,'1 ',1,   3,  28,     0.105,     0.030,     0.000,     0.000,     0.000,     0.000,   1,1, 0
 3101,'2 ',1,   3,  28,     2.793,     0.791,     0.000,     0.000,     0.000,     0.000,   1,1, 0
 3101,'3 ',1,   3,  28,     6.534,     1.851,     0.000,     0.000,     0.000,     0.000,   1,1, 0
 3102,'1 ',1,   3,  27,    75.255,    21.322,     0.000,     0.000,     0.000,     0.000,   1,1, 0
 3103,'1 ',1,   3,  27,     0.333,     0.094,     0.000,     0.000,     0.000,     0.000,   1,1, 0
 3103,'2 ',1,   3,  27,    38.985,    11.046,     0.000,     0.000,     0.000,     0.000,   1,1, 0
...
0 / END OF LOAD DATA, BEGIN FIXED SHUNT DATA
  2017,'2 ', 1,     0.000,  -100.000
  2096,'2 ', 1,     0.000,   -61.166
  3051,'2 ', 0,     0.000,    80.000
  8005,'1 ', 0,     0.000,   100.000
0 / END OF FIXED SHUNT DATA, BEGIN GENERATOR DATA
 1001,'1 ',   158.250,   -30.380,    44.940,   -30.380,1.01000, 1004,   100.000,   0.00000,   1.00000,   0.00000,   0.00000,1.00000,1,  100.0,   211.000,    63.300,   1,1.0000,   0,1.0000,   0,1.0000,   0,1.0000,0, 1.0000
 1004,'1 ',   158.250,   -30.380,    44.940,   -30.380,1.01000,    0,   253.200,   0.00000,   1.00000,   0.00000,   0.00000,1.00000,0,  100.0,   211.000,    63.300,   1,1.0000,   0,1.0000,   0,1.0000,   0,1.0000,1, 1.0000
 1006,'1 ',    25.730,    -4.354,     7.310,    -4.940,1.00000,    0,    41.160,   0.00000,   1.00000,   0.00000,   0.00000,1.00000,1,  100.0,    34.300,    10.290,   1,1.0000,   0,1.0000,   0,1.0000,   0,1.0000,1, 1.0000
 1008,'1 ',   208.500,   -40.030,    59.210,   -40.030,1.00000, 1033,   100.000,   0.00000,   1.00000,   0.00000,   0.00000,1.00000,1,  100.0,   278.000,    83.400,   1,1.0000,   0,1.0000,   0,1.0000,   0,1.0000,0, 1.0000
 1009,'1 ',    61.870,   -11.880,    17.570,   -11.880,1.00000,    0,    99.000,   0.00000,   1.00000,   0.00000,   0.00000,1.00000,1,  100.0,    82.500,    24.750,   1,1.0000,   0,1.0000,   0,1.0000,   0,1.0000,1, 1.0000
 1011,'1 ',     9.972,     0.000,     0.000,     0.000,1.00000,    0,    12.000,   0.00000,   1.00000,   0.00000,   0.00000,1.00000,1,  100.0,    10.000,     3.000,   1,1.0000,   0,1.0000,   0,1.0000,   0,1.0000,1, 1.0000
 1018,'1 ',     0.000,     0.000,    91.010,   -19.850,1.00000, 1053,   100.000,   0.00000,   1.00000,   0.00000,   0.00000,1.00000,0,  100.0,   178.800,    53.640,   1,1.0000,   0,1.0000,   0,1.0000,   0,1.0000,0, 1.0000
 1021,'1 ',   149.630,   -23.151,    42.490,   -28.730,1.00000,    0,   239.400,   0.00000,   1.00000,   0.00000,   0.00000,1.00000,1,  100.0,   199.500,    59.850,   1,1.0000,   0,1.0000,   0,1.0000,   0,1.0000,1, 1.0000
 1023,'1 ',   135.000,     2.262,    38.340,   -25.920,1.01000,    0,   216.000,   0.00000,   1.00000,   0.00000,   0.00000,1.00000,1,  100.0,   180.000,    54.000,   1,1.0000,   0,1.0000,   0,1.0000,   0,1.0000,1, 1.0000
 1026,'1 ',    93.150,    -3.423,    26.450,   -17.880,1.00000,    0,   149.040,   0.00000,   1.00000,   0.00000,   0.00000,1.00000,1,  100.0,   124.200,    37.260,   1,1.0000,   0,1.0000,   0,1.0000,   0,1.0000,1, 1.0000
 1033,'1 ',    95.233,   -10.600,    48.610,   -10.600,1.01000, 1079,   333.600,   0.00000,   1.00000,   0.00000,   0.00000,1.00000,1,  100.0,    95.500,    28.650,   1,1.0000,   0,1.0000,   0,1.0000,   0,1.0000,1, 1.0000
 1035,'1 ',     0.000,     0.000,   145.830,   -31.800,1.01000, 1081,   108.000,   0.00000,   1.00000,   0.00000,   0.00000,1.00000,0,  100.0,   286.500,    85.950,   1,1.0000,   0,1.0000,   0,1.0000,   0,1.0000,1, 1.0000
 1036,'1 ',   112.500,   -21.600,    31.950,   -21.600,1.00000, 1082,   100.000,   0.00000,   1.00000,   0.00000,   0.00000,1.00000,1,  100.0,   150.000,    45.000,   1,1.0000,   0,1.0000,   0,1.0000,   0,1.0000,0, 1.0000
 1037,'1 ',    86.620,    24.600,    24.600,   -16.630,1.04000, 1084,   100.000,   0.00000,   1.00000,   0.00000,   0.00000,1.00000,1,  100.0,   115.500,    34.650,   1,1.0000,   0,1.0000,   0,1.0000,   0,1.0000,0, 1.0000
 1038,'1 ',    56.250,    -0.293,    15.970,   -10.800,1.00000, 1088,   100.000,   0.00000,   1.00000,   0.00000,   0.00000,1.00000,1,  100.0,    75.000,    22.500,   1,1.0000,   0,1.0000,   0,1.0000,   0,1.0000,0, 1.0000
 1039,'1 ',   114.370,    31.032,    32.480,   -21.960,1.02000, 1090,   177.000,   0.00000,   1.00000,   0.00000,   0.00000,1.00000,1,  100.0,   152.500,    45.750,   1,1.0000,   0,1.0000,   0,1.0000,   0,1.0000,1, 1.0000
 1040,'2 ',    27.000,     7.670,     7.670,    -5.180,1.02000, 1090,   100.000,   0.00000,   1.00000,   0.00000,   0.00000,1.00000,1,  100.0,    36.000,    10.800,   1,1.0000,   0,1.0000,   0,1.0000,   0,1.0000,0, 1.0000
 1042,'1 ',     0.000,   -10.549,    25.960,   -17.550,1.00000,    0,   146.280,   0.00000,   1.00000,   0.00000,   0.00000,1.00000,0,  100.0,   121.900,    36.570,   1,1.0000,   0,1.0000,   0,1.0000,   0,1.0000,1, 1.0000
 1043,'1 ',    44.100,    -1.162,    12.520,    -8.470,1.00000,    0,    70.560,   0.00000,   1.00000,   0.00000,   0.00000,1.00000,1,  100.0,    58.800,    17.640,   1,1.0000,   0,1.0000,   0,1.0000,   0,1.0000,1, 1.0000
 1048,'1 ',     0.000,     0.000,   165.530,   -36.100,1.00000,    0,   390.240,   0.00000,   0.10170,   0.00000,   0.00000,1.00000,0,  100.0,   325.200,    97.560,   1,1.0000,   0,1.0000,   0,1.0000,   0,1.0000,0, 1.0000
 1049,'1 ',     0.000,     0.000,   165.530,   -36.100,1.00000,    0,   390.240,   0.00000,   0.13490,   0.00000,   0.00000,1.00000,0,  100.0,   325.200,    97.560,   1,1.0000,   0,1.0000,   0,1.0000,   0,1.0000,0, 1.0000
 1050,'1 ',    89.150,    -4.140,    45.500,    -9.920,1.00000,    0,   107.280,   0.00000,   0.27770,   0.00000,   0.00000,1.00000,1,  100.0,    89.400,    26.820,   1,1.0000,   0,1.0000,   0,1.0000,   0,1.0000,0, 1.0000
 1051,'1 ',    89.150,    -2.881,    45.500,    -9.920,1.00000,    0,   107.280,   0.00000,   0.31740,   0.00000,   0.00000,1.00000,1,  100.0,    89.400,    26.820,   1,1.0000,   0,1.0000,   0,1.0000,   0,1.0000,0, 1.0000
 1052,'1 ',    89.150,    -7.036,    45.500,    -9.920,1.00000,    0,   107.280,   0.00000,   0.27810,   0.00000,   0.00000,1.00000,1,  100.0,    89.400,    26.820,   1,1.0000,   0,1.0000,   0,1.0000,   0,1.0000,0, 1.0000
 1053,'1 ',     0.000,     0.000,    91.010,   -19.850,1.00000,    0,   214.560,   0.00000,   0.16870,   0.00000,   0.00000,1.00000,0,  100.0,   178.800,    53.640,   1,1.0000,   0,1.0000,   0,1.0000,   0,1.0000,0, 1.0000
 1057,'1 ',     0.000,    -7.656,    25.560,   -17.280,1.00000,    0,   144.000,   0.00000,   1.00000,   0.00000,   0.00000,1.00000,0,  100.0,   120.000,    36.000,   1,1.0000,   0,1.0000,   0,1.0000,   0,1.0000,1, 1.0000
 1059,'1 ',     0.000,     0.000,     2.850,    -0.620,1.04000,    0,     6.720,   0.00000,   0.22770,   0.00000,   0.00000,1.00000,0,  100.0,     5.600,     1.680,   1,1.0000,   0,1.0000,   0,1.0000,   0,1.0000,0, 1.0000
 1060,'1 ',     0.000,     0.000,     1.020,    -0.220,1.04000,    0,     2.400,   0.00000,   0.16300,   0.00000,   0.00000,1.00000,0,  100.0,     2.000,     0.600,   1,1.0000,   0,1.0000,   0,1.0000,   0,1.0000,0, 1.0000
 1062,'1 ',     0.000,     0.000,     0.000,     0.000,1.01000,    0,     1.800,   0.00000,   1.00000,   0.00000,   0.00000,1.00000,0,  100.0,     1.500,     0.450,   1,1.0000,   0,1.0000,   0,1.0000,   0,1.0000,1, 1.0000
 1063,'1 ',     0.000,     0.000,     0.000,     0.000,1.01000,    0,   276.000,   0.00000,   1.00000,   0.00000,   0.00000,1.00000,0,  100.0,   230.000,    69.000,   1,1.0000,   0,1.0000,   0,1.0000,   0,1.0000,1, 1.0000
 1066,'1 ',   106.880,    -0.830,    30.350,   -20.520,1.00000,    0,   171.000,   0.00000,   1.00000,   0.00000,   0.00000,1.00000,1,  100.0,   142.500,    42.750,   1,1.0000,   0,1.0000,   0,1.0000,   0,1.0000,1, 1.0000
 1070,'1 ',   120.380,    25.495,    34.190,   -23.110,1.04000,    0,   192.600,   0.00000,   1.00000,   0.00000,   0.00000,1.00000,1,  100.0,   160.500,    48.150,   1,1.0000,   0,1.0000,   0,1.0000,   0,1.0000,1, 1.0000
 1072,'1 ',   191.594,    30.817,    97.800,   -21.330,1.01000,    0,   230.560,   0.00000,   0.30820,   0.00000,   0.00000,1.00000,1,  100.0,   192.130,    57.640,   1,1.0000,   0,1.0000,   0,1.0000,   0,1.0000,0, 1.0000
 1073,'1 ',   136.280,   -26.160,    38.700,   -26.160,1.00000, 2123,   230.560,   0.00000,   0.19480,   0.00000,   0.00000,1.00000,1,  100.0,   181.700,    54.510,   1,1.0000,   0,1.0000,   0,1.0000,   0,1.0000,0, 1.0000
 1074,'1 ',   216.450,    -0.025,    61.470,   -41.560,1.04000, 2127,   230.560,   0.00000,   0.20960,   0.00000,   0.00000,1.00000,1,  100.0,   288.600,    86.580,   1,1.0000,   0,1.0000,   0,1.0000,   0,1.0000,0, 1.0000
 1075,'1 ',   191.594,    34.381,    97.800,   -21.330,1.01000,    0,   230.560,   0.00000,   0.12370,   0.00000,   0.00000,1.00000,1,  100.0,   192.130,    57.640,   1,1.0000,   0,1.0000,   0,1.0000,   0,1.0000,0, 1.0000
 1076,'1 ',     0.000,     0.000,    97.800,   -21.330,1.01000,    0,   230.560,   0.00000,   0.10660,   0.00000,   0.00000,1.00000,0,  100.0,   192.130,    57.640,   1,1.0000,   0,1.0000,   0,1.0000,   0,1.0000,0, 1.0000
 1077,'1 ',     0.000,     0.000,    97.800,   -21.330,1.01000,    0,   230.560,   0.00000,   0.15380,   0.00000,   0.00000,1.00000,0,  100.0,   192.130,    57.640,   1,1.0000,   0,1.0000,   0,1.0000,   0,1.0000,0, 1.0000
 1078,'1 ',    95.233,    18.159,    48.610,   -10.600,1.01000,    0,   114.600,   0.00000,   0.28520,   0.00000,   0.00000,1.00000,1,  100.0,    95.500,    28.650,   1,1.0000,   0,1.0000,   0,1.0000,   0,1.0000,0, 1.0000
 1079,'1 ',    95.233,   -10.600,    48.610,   -10.600,1.01000,    0,   114.600,   0.00000,   0.17260,   0.00000,   0.00000,1.00000,0,  100.0,    95.500,    28.650,   1,1.0000,   0,1.0000,   0,1.0000,   0,1.0000,0, 1.0000
 1080,'1 ',    95.233,    14.904,    48.610,   -10.600,1.01000,    0,   114.600,   0.00000,   0.15430,   0.00000,   0.00000,1.00000,1,  100.0,    95.500,    28.650,   1,1.0000,   0,1.0000,   0,1.0000,   0,1.0000,0, 1.0000
 1081,'1 ',     0.000,     0.000,   145.830,   -31.800,1.01000,    0,   343.800,   0.00000,   0.14960,   0.00000,   0.00000,1.00000,0,  100.0,   286.500,    85.950,   1,1.0000,   0,1.0000,   0,1.0000,   0,1.0000,0, 1.0000
 1082,'1 ',   112.500,   -21.600,    31.950,   -21.600,1.00000,    0,   180.000,   0.00000,   1.00000,   0.00000,   0.00000,1.00000,0,  100.0,   150.000,    45.000,   1,1.0000,   0,1.0000,   0,1.0000,   0,1.0000,1, 1.0000
 1084,'1 ',   180.750,    51.330,    51.330,   -34.700,1.04000, 3048,   138.600,   0.00000,   1.00000,   0.00000,   0.00000,1.00000,1,  100.0,   241.000,    72.300,   1,1.0000,   0,1.0000,   0,1.0000,   0,1.0000,1, 1.0000
 1088,'1 ',    56.250,    -0.293,    15.970,   -10.800,1.00000,    0,    90.000,   0.00000,   1.00000,   0.00000,   0.00000,1.00000,0,  100.0,    75.000,    22.500,   1,1.0000,   0,1.0000,   0,1.0000,   0,1.0000,1, 1.0000
 1090,'1 ',   114.370,    31.032,    32.480,   -21.960,1.02000,    0,   183.000,   0.00000,   1.00000,   0.00000,   0.00000,1.00000,0,  100.0,   152.500,    45.750,   1,1.0000,   0,1.0000,   0,1.0000,   0,1.0000,1, 1.0000
 1090,'2 ',    27.000,     7.670,     7.670,    -5.180,1.02000,    0,    43.200,   0.00000,   1.00000,   0.00000,   0.00000,1.00000,0,  100.0,    36.000,    10.800,   1,1.0000,   0,1.0000,   0,1.0000,   0,1.0000,1, 1.0000
 1112,'1 ',   101.250,   -19.440,    28.760,   -19.440,1.00000, 3127,   100.000,   0.00000,   1.00000,   0.00000,   0.00000,1.00000,1,  100.0,   135.000,    40.500,   1,1.0000,   0,1.0000,   0,1.0000,   0,1.0000,0, 1.0000
 1113,'1 ',    94.880,   -18.220,    26.940,   -18.220,1.00000, 3129,   100.000,   0.00000,   1.00000,   0.00000,   0.00000,1.00000,1,  100.0,   126.500,    37.950,   1,1.0000,   0,1.0000,   0,1.0000,   0,1.0000,0, 1.0000
 1114,'1 ',    85.500,    24.280,    24.280,   -16.420,1.02000, 3131,   100.000,   0.00000,   1.00000,   0.00000,   0.00000,1.00000,1,  100.0,   114.000,    34.200,   1,1.0000,   0,1.0000,   0,1.0000,   0,1.0000,0, 1.0000
 1115,'1 ',     0.000,     0.000,    26.110,    -5.690,1.04000, 3133,   100.000,   0.00000,   1.00000,   0.00000,   0.00000,1.00000,0,  100.0,    51.300,    15.390,   1,1.0000,   0,1.0000,   0,1.0000,   0,1.0000,0, 1.0000
 1116,'2 ',     0.000,     0.000,    26.110,    -5.690,1.04000, 3133,   100.000,   0.00000,   1.00000,   0.00000,   0.00000,1.00000,0,  100.0,    51.300,    15.390,   1,1.0000,   0,1.0000,   0,1.0000,   0,1.0000,0, 1.0000
 1117,'3 ',     0.000,     0.000,    26.110,    -5.690,1.04000, 3133,   100.000,   0.00000,   1.00000,   0.00000,   0.00000,1.00000,0,  100.0,    51.300,    15.390,   1,1.0000,   0,1.0000,   0,1.0000,   0,1.0000,0, 1.0000
 1118,'1 ',    75.900,    21.560,    21.560,   -14.570,1.03000, 3137,   100.000,   0.00000,   1.00000,   0.00000,   0.00000,1.00000,1,  100.0,   101.200,    30.360,   1,1.0000,   0,1.0000,   0,1.0000,   0,1.0000,0, 1.0000
 1119,'1 ',    68.620,   -13.180,    19.490,   -13.180,1.00000, 3141,   100.000,   0.00000,   1.00000,   0.00000,   0.00000,1.00000,1,  100.0,    91.500,    27.450,   1,1.0000,   0,1.0000,   0,1.0000,   0,1.0000,0, 1.0000
 1168,'1 ',   150.070,    42.620,    42.620,   -28.810,1.04000, 4181,   100.000,   0.00000,   1.00000,   0.00000,   0.00000,1.00000,1,  100.0,   200.100,    60.030,   1,1.0000,   0,1.0000,   0,1.0000,   0,1.0000,0, 1.0000
 1169,'1 ',   152.250,    43.240,    43.240,   -29.230,1.03000, 4183,   100.000,   0.00000,   1.00000,   0.00000,   0.00000,1.00000,1,  100.0,   203.000,    60.900,   1,1.0000,   0,1.0000,   0,1.0000,   0,1.0000,0, 1.0000
 1170,'1 ',    74.791,    21.267,    38.170,    -8.330,1.02000, 4192,   100.000,   0.00000,   1.00000,   0.00000,   0.00000,1.00000,1,  100.0,    75.000,    22.500,   1,1.0000,   0,1.0000,   0,1.0000,   0,1.0000,0, 1.0000
 1171,'10',   183.257,    21.267,    93.540,   -20.400,1.02000, 4192,   100.000,   0.00000,   1.00000,   0.00000,   0.00000,1.00000,1,  100.0,   183.770,    55.130,   1,1.0000,   0,1.0000,   0,1.0000,   0,1.0000,0, 1.0000
 1172,'2 ',     0.000,     0.000,    12.220,    -2.660,1.02000, 4192,   100.000,   0.00000,   1.00000,   0.00000,   0.00000,1.00000,0,  100.0,    24.000,     7.200,   1,1.0000,   0,1.0000,   0,1.0000,   0,1.0000,0, 1.0000
 1173,'3 ',    60.830,    21.267,    31.050,    -6.770,1.02000, 4192,   100.000,   0.00000,   1.00000,   0.00000,   0.00000,1.00000,1,  100.0,    61.000,    18.300,   1,1.0000,   0,1.0000,   0,1.0000,   0,1.0000,0, 1.0000
 1174,'4 ',    10.371,     5.290,     5.290,    -1.150,1.02000, 4192,   100.000,   0.00000,   1.00000,   0.00000,   0.00000,1.00000,1,  100.0,    10.400,     3.120,   1,1.0000,   0,1.0000,   0,1.0000,   0,1.0000,0, 1.0000
 1175,'5 ',   136.478,    21.267,   135.900,   -29.640,1.02000, 4192,   100.000,   0.00000,   1.00000,   0.00000,   0.00000,1.00000,1,  100.0,   267.000,    80.100,   1,1.0000,   0,1.0000,   0,1.0000,   0,1.0000,0, 1.0000
 1176,'6 ',   155.896,    21.267,   135.900,   -29.640,1.02000, 4192,   100.000,   0.00000,   1.00000,   0.00000,   0.00000,1.00000,1,  100.0,   267.000,    80.100,   1,1.0000,   0,1.0000,   0,1.0000,   0,1.0000,0, 1.0000
 1177,'7 ',   155.896,    21.267,   135.900,   -29.640,1.02000, 4192,   100.000,   0.00000,   1.00000,   0.00000,   0.00000,1.00000,1,  100.0,   267.000,    80.100,   1,1.0000,   0,1.0000,   0,1.0000,   0,1.0000,0, 1.0000
 1178,'8 ',   183.257,    21.267,    93.540,   -20.400,1.02000, 4192,   100.000,   0.00000,   1.00000,   0.00000,   0.00000,1.00000,1,  100.0,   183.770,    55.130,   1,1.0000,   0,1.0000,   0,1.0000,   0,1.0000,0, 1.0000
 1179,'9 ',   183.257,    21.267,    93.540,   -20.400,1.02000, 4192,   100.000,   0.00000,   1.00000,   0.00000,   0.00000,1.00000,1,  100.0,   183.770,    55.130,   1,1.0000,   0,1.0000,   0,1.0000,   0,1.0000,0, 1.0000
 1180,'1 ',   151.200,    42.940,    42.940,   -29.030,1.02000, 4194,   100.000,   0.00000,   1.00000,   0.00000,   0.00000,1.00000,1,  100.0,   201.600,    60.480,   1,1.0000,   0,1.0000,   0,1.0000,   0,1.0000,0, 1.0000
 1181,'1 ',    69.000,   -13.250,    19.600,   -13.250,1.00000, 4195,   100.000,   0.00000,   1.00000,   0.00000,   0.00000,1.00000,1,  100.0,    92.000,    27.600,   1,1.0000,   0,1.0000,   0,1.0000,   0,1.0000,0, 1.0000
 1254,'1 ',     0.000,     0.000,   147.100,   -32.080,1.01000, 5444,   100.000,   0.00000,   1.00000,   0.00000,   0.00000,1.00000,0,  100.0,   289.000,    86.700,   1,1.0000,   0,1.0000,   0,1.0000,   0,1.0000,0, 1.0000
 1255,'2 ',     0.000,     0.000,   147.100,   -32.080,1.01000, 5444,   100.000,   0.00000,   1.00000,   0.00000,   0.00000,1.00000,0,  100.0,   289.000,    86.700,   1,1.0000,   0,1.0000,   0,1.0000,   0,1.0000,0, 1.0000
 1256,'3 ',     0.000,     0.000,   147.100,   -32.080,1.01000, 5444,   100.000,   0.00000,   1.00000,   0.00000,   0.00000,1.00000,0,  100.0,   289.000,    86.700,   1,1.0000,   0,1.0000,   0,1.0000,   0,1.0000,0, 1.0000
 1257,'4 ',   288.193,    19.061,   147.100,   -32.080,1.01000, 5444,   100.000,   0.00000,   1.00000,   0.00000,   0.00000,1.00000,1,  100.0,   289.000,    86.700,   1,1.0000,   0,1.0000,   0,1.0000,   0,1.0000,0, 1.0000
 1258,'5 ',   288.193,    19.061,   147.100,   -32.080,1.01000, 5444,   100.000,   0.00000,   1.00000,   0.00000,   0.00000,1.00000,1,  100.0,   289.000,    86.700,   1,1.0000,   0,1.0000,   0,1.0000,   0,1.0000,0, 1.0000
 1259,'6 ',     0.000,     0.000,   147.100,   -32.080,1.01000, 5444,   100.000,   0.00000,   1.00000,   0.00000,   0.00000,1.00000,0,  100.0,   289.000,    86.700,   1,1.0000,   0,1.0000,   0,1.0000,   0,1.0000,0, 1.0000
 1260,'7 ',   140.905,    19.061,    71.920,   -15.680,1.01000, 5444,   100.000,   0.00000,   1.00000,   0.00000,   0.00000,1.00000,1,  100.0,   141.300,    42.390,   1,1.0000,   0,1.0000,   0,1.0000,   0,1.0000,0, 1.0000
 1261,'8 ',   140.905,    19.061,    71.920,   -15.680,1.01000, 5444,   100.000,   0.00000,   1.00000,   0.00000,   0.00000,1.00000,1,  100.0,   141.300,    42.390,   1,1.0000,   0,1.0000,   0,1.0000,   0,1.0000,0, 1.0000
 1341,'1 ',     0.000,     0.000,     6.110,    -1.330,1.04000, 6349,   100.000,   0.00000,   1.00000,   0.00000,   0.00000,1.00000,0,  100.0,    12.000,     3.600,   1,1.0000,   0,1.0000,   0,1.0000,   0,1.0000,0, 1.0000
 1342,'10',     0.000,     0.000,    26.210,    -5.720,1.04000, 6349,   100.000,   0.00000,   1.00000,   0.00000,   0.00000,1.00000,0,  100.0,    51.500,    15.450,   1,1.0000,   0,1.0000,   0,1.0000,   0,1.0000,0, 1.0000
 1343,'11',    31.300,    52.430,    52.430,   -11.430,1.04000, 6349,   100.000,   0.00000,   1.00000,   0.00000,   0.00000,1.00000,1,  100.0,   103.000,    30.900,   1,1.0000,   0,1.0000,   0,1.0000,   0,1.0000,0, 1.0000
 1344,'2 ',     0.000,     0.000,     1.170,    -0.260,1.04000, 6349,   100.000,   0.00000,   1.00000,   0.00000,   0.00000,1.00000,0,  100.0,     2.300,     0.690,   1,1.0000,   0,1.0000,   0,1.0000,   0,1.0000,0, 1.0000
 1345,'3 ',     0.000,     0.000,     2.340,    -0.510,1.04000, 6349,   100.000,   0.00000,   1.00000,   0.00000,   0.00000,1.00000,0,  100.0,     4.600,     1.380,   1,1.0000,   0,1.0000,   0,1.0000,   0,1.0000,0, 1.0000
...